Version 4
SHEET 1 880 680
WIRE 352 -112 240 -112
WIRE 240 -32 240 -112
WIRE 288 -32 240 -32
WIRE 240 -16 240 -32
WIRE 192 0 144 0
WIRE 352 16 352 -32
WIRE 288 32 288 -32
WIRE 288 32 240 32
WIRE 144 96 144 0
WIRE 144 96 80 96
WIRE 80 128 80 96
WIRE 240 128 240 80
WIRE 400 128 240 128
WIRE 240 176 240 128
WIRE 256 224 240 224
WIRE 400 224 400 192
WIRE 80 256 80 208
WIRE 144 256 144 96
WIRE 192 256 144 256
WIRE 256 272 256 224
WIRE 256 272 240 272
WIRE 240 304 240 272
FLAG 80 256 0
FLAG 352 16 0
FLAG 400 224 0
FLAG 240 304 0
SYMBOL nmos4 192 176 R0
WINDOW 0 80 44 Left 2
WINDOW 3 78 72 Left 2
SYMATTR InstName M1
SYMATTR Value2 l=180n w=2u
SYMBOL voltage 352 -128 R0
WINDOW 123 0 0 Left 0
WINDOW 39 0 0 Left 0
SYMATTR InstName V1
SYMATTR Value 2
SYMBOL voltage 80 112 R0
WINDOW 3 252 -16 Left 2
WINDOW 123 0 0 Left 0
WINDOW 39 0 0 Left 0
SYMATTR Value PULSE(0 1.6 0 0 0 20n 40n)
SYMATTR InstName V2
SYMBOL cap 384 128 R0
SYMATTR InstName C1
SYMATTR Value 1p
SYMBOL pmos4 192 80 M180
WINDOW 3 56 10 Left 2
SYMATTR InstName M2
SYMATTR Value2 l=180n w=4u
TEXT 336 64 Left 2 !.tran 200n
TEXT 32 -96 Left 0 ;Pulse has less ON time and more OFF time
TEXT -40 -8 Left 0 ;VARUN RAM S 20BAC10038\n02 Feb 2023
